LTspice 24.0.12 for Windows
Circuit: * D:\downloads\7.ECAD\daikou\hamusai_DCC\Draft1.asc
Start Time: Fri Oct  4 08:58:35 2024
solver = Normal
Maximum thread count: 16
tnom = 27
temp = 27
method = modified trap
Fatal Error: This circuit does not have a conduction path to ground!
   Please flag a node as ground.
